
---------- Begin Simulation Statistics ----------
simSeconds                                   0.279972                       # Number of seconds simulated (Second)
simTicks                                 279971790000                       # Number of ticks simulated (Tick)
finalTick                                279971790000                       # Number of ticks from beginning of simulation (restored from checkpoints and never reset) (Tick)
simFreq                                  1000000000000                       # The number of ticks per simulated second ((Tick/Second))
hostSeconds                                  38057.43                       # Real time elapsed on the host (Second)
hostTickRate                                  7356561                       # The number of ticks simulated per host second (ticks/s) ((Tick/Second))
hostMemory                                   10449760                       # Number of bytes of host memory used (Byte)
simInsts                                   3195112368                       # Number of instructions simulated (Count)
simOps                                     6091087680                       # Number of ops (including micro ops) simulated (Count)
hostInstRate                                    83955                       # Simulator instruction rate (inst/s) ((Count/Second))
hostOpRate                                     160050                       # Simulator op (including micro ops) rate (op/s) ((Count/Second))
system.clk_domain.clock                          1000                       # Clock period in ticks (Tick)
system.cpu0.numCycles                       559126202                       # Number of cpu cycles simulated (Cycle)
system.cpu0.numWorkItemsStarted                     0                       # Number of work items this cpu started (Count)
system.cpu0.numWorkItemsCompleted                   0                       # Number of work items this cpu completed (Count)
system.cpu0.instsAdded                      385401329                       # Number of instructions added to the IQ (excludes non-spec) (Count)
system.cpu0.nonSpecInstsAdded                    2068                       # Number of non-speculative instructions added to the IQ (Count)
system.cpu0.instsIssued                     392393672                       # Number of instructions issued (Count)
system.cpu0.squashedInstsIssued                 24163                       # Number of squashed instructions issued (Count)
system.cpu0.squashedInstsExamined             4710417                       # Number of squashed instructions iterated over during squash; mainly for profiling (Count)
system.cpu0.squashedOperandsExamined          5516167                       # Number of squashed operands that are examined and possibly removed from graph (Count)
system.cpu0.squashedNonSpecRemoved                337                       # Number of squashed non-spec instructions that were removed (Count)
system.cpu0.numIssuedDist::samples          554981938                       # Number of insts issued each cycle (Count)
system.cpu0.numIssuedDist::mean              0.707039                       # Number of insts issued each cycle (Count)
system.cpu0.numIssuedDist::stdev             1.579813                       # Number of insts issued each cycle (Count)
system.cpu0.numIssuedDist::underflows               0      0.00%      0.00% # Number of insts issued each cycle (Count)
system.cpu0.numIssuedDist::0                424347561     76.46%     76.46% # Number of insts issued each cycle (Count)
system.cpu0.numIssuedDist::1                 37748560      6.80%     83.26% # Number of insts issued each cycle (Count)
system.cpu0.numIssuedDist::2                 26345944      4.75%     88.01% # Number of insts issued each cycle (Count)
system.cpu0.numIssuedDist::3                 23187852      4.18%     92.19% # Number of insts issued each cycle (Count)
system.cpu0.numIssuedDist::4                 14217605      2.56%     94.75% # Number of insts issued each cycle (Count)
system.cpu0.numIssuedDist::5                  9956631      1.79%     96.54% # Number of insts issued each cycle (Count)
system.cpu0.numIssuedDist::6                 11130400      2.01%     98.55% # Number of insts issued each cycle (Count)
system.cpu0.numIssuedDist::7                  5425387      0.98%     99.53% # Number of insts issued each cycle (Count)
system.cpu0.numIssuedDist::8                  2621998      0.47%    100.00% # Number of insts issued each cycle (Count)
system.cpu0.numIssuedDist::overflows                0      0.00%    100.00% # Number of insts issued each cycle (Count)
system.cpu0.numIssuedDist::min_value                0                       # Number of insts issued each cycle (Count)
system.cpu0.numIssuedDist::max_value                8                       # Number of insts issued each cycle (Count)
system.cpu0.numIssuedDist::total            554981938                       # Number of insts issued each cycle (Count)
system.cpu0.statFuBusy::No_OpClass                  0      0.00%      0.00% # attempts to use FU when none available (Count)
system.cpu0.statFuBusy::IntAlu                4621840     73.43%     73.43% # attempts to use FU when none available (Count)
system.cpu0.statFuBusy::IntMult                     0      0.00%     73.43% # attempts to use FU when none available (Count)
system.cpu0.statFuBusy::IntDiv                      0      0.00%     73.43% # attempts to use FU when none available (Count)
system.cpu0.statFuBusy::FloatAdd                 7336      0.12%     73.55% # attempts to use FU when none available (Count)
system.cpu0.statFuBusy::FloatCmp                    0      0.00%     73.55% # attempts to use FU when none available (Count)
system.cpu0.statFuBusy::FloatCvt                    0      0.00%     73.55% # attempts to use FU when none available (Count)
system.cpu0.statFuBusy::FloatMult                   0      0.00%     73.55% # attempts to use FU when none available (Count)
system.cpu0.statFuBusy::FloatMultAcc                0      0.00%     73.55% # attempts to use FU when none available (Count)
system.cpu0.statFuBusy::FloatDiv                    0      0.00%     73.55% # attempts to use FU when none available (Count)
system.cpu0.statFuBusy::FloatMisc                   0      0.00%     73.55% # attempts to use FU when none available (Count)
system.cpu0.statFuBusy::FloatSqrt                   0      0.00%     73.55% # attempts to use FU when none available (Count)
system.cpu0.statFuBusy::SimdAdd                     8      0.00%     73.55% # attempts to use FU when none available (Count)
system.cpu0.statFuBusy::SimdAddAcc                  0      0.00%     73.55% # attempts to use FU when none available (Count)
system.cpu0.statFuBusy::SimdAlu                   166      0.00%     73.55% # attempts to use FU when none available (Count)
system.cpu0.statFuBusy::SimdCmp                     0      0.00%     73.55% # attempts to use FU when none available (Count)
system.cpu0.statFuBusy::SimdCvt                   334      0.01%     73.56% # attempts to use FU when none available (Count)
system.cpu0.statFuBusy::SimdMisc                    8      0.00%     73.56% # attempts to use FU when none available (Count)
system.cpu0.statFuBusy::SimdMult                    0      0.00%     73.56% # attempts to use FU when none available (Count)
system.cpu0.statFuBusy::SimdMultAcc                 0      0.00%     73.56% # attempts to use FU when none available (Count)
system.cpu0.statFuBusy::SimdShift                  74      0.00%     73.56% # attempts to use FU when none available (Count)
system.cpu0.statFuBusy::SimdShiftAcc                0      0.00%     73.56% # attempts to use FU when none available (Count)
system.cpu0.statFuBusy::SimdDiv                     0      0.00%     73.56% # attempts to use FU when none available (Count)
system.cpu0.statFuBusy::SimdSqrt                    0      0.00%     73.56% # attempts to use FU when none available (Count)
system.cpu0.statFuBusy::SimdFloatAdd                0      0.00%     73.56% # attempts to use FU when none available (Count)
system.cpu0.statFuBusy::SimdFloatAlu                0      0.00%     73.56% # attempts to use FU when none available (Count)
system.cpu0.statFuBusy::SimdFloatCmp                0      0.00%     73.56% # attempts to use FU when none available (Count)
system.cpu0.statFuBusy::SimdFloatCvt                0      0.00%     73.56% # attempts to use FU when none available (Count)
system.cpu0.statFuBusy::SimdFloatDiv                0      0.00%     73.56% # attempts to use FU when none available (Count)
system.cpu0.statFuBusy::SimdFloatMisc               0      0.00%     73.56% # attempts to use FU when none available (Count)
system.cpu0.statFuBusy::SimdFloatMult               0      0.00%     73.56% # attempts to use FU when none available (Count)
system.cpu0.statFuBusy::SimdFloatMultAcc            0      0.00%     73.56% # attempts to use FU when none available (Count)
system.cpu0.statFuBusy::SimdFloatSqrt               0      0.00%     73.56% # attempts to use FU when none available (Count)
system.cpu0.statFuBusy::SimdReduceAdd               0      0.00%     73.56% # attempts to use FU when none available (Count)
system.cpu0.statFuBusy::SimdReduceAlu               0      0.00%     73.56% # attempts to use FU when none available (Count)
system.cpu0.statFuBusy::SimdReduceCmp               0      0.00%     73.56% # attempts to use FU when none available (Count)
system.cpu0.statFuBusy::SimdFloatReduceAdd            0      0.00%     73.56% # attempts to use FU when none available (Count)
system.cpu0.statFuBusy::SimdFloatReduceCmp            0      0.00%     73.56% # attempts to use FU when none available (Count)
system.cpu0.statFuBusy::SimdAes                     0      0.00%     73.56% # attempts to use FU when none available (Count)
system.cpu0.statFuBusy::SimdAesMix                  0      0.00%     73.56% # attempts to use FU when none available (Count)
system.cpu0.statFuBusy::SimdSha1Hash                0      0.00%     73.56% # attempts to use FU when none available (Count)
system.cpu0.statFuBusy::SimdSha1Hash2               0      0.00%     73.56% # attempts to use FU when none available (Count)
system.cpu0.statFuBusy::SimdSha256Hash              0      0.00%     73.56% # attempts to use FU when none available (Count)
system.cpu0.statFuBusy::SimdSha256Hash2             0      0.00%     73.56% # attempts to use FU when none available (Count)
system.cpu0.statFuBusy::SimdShaSigma2               0      0.00%     73.56% # attempts to use FU when none available (Count)
system.cpu0.statFuBusy::SimdShaSigma3               0      0.00%     73.56% # attempts to use FU when none available (Count)
system.cpu0.statFuBusy::SimdPredAlu                 0      0.00%     73.56% # attempts to use FU when none available (Count)
system.cpu0.statFuBusy::MemRead               1140398     18.12%     91.68% # attempts to use FU when none available (Count)
system.cpu0.statFuBusy::MemWrite               192458      3.06%     94.73% # attempts to use FU when none available (Count)
system.cpu0.statFuBusy::FloatMemRead           107485      1.71%     96.44% # attempts to use FU when none available (Count)
system.cpu0.statFuBusy::FloatMemWrite          223957      3.56%    100.00% # attempts to use FU when none available (Count)
system.cpu0.statFuBusy::IprAccess                   0      0.00%    100.00% # attempts to use FU when none available (Count)
system.cpu0.statFuBusy::InstPrefetch                0      0.00%    100.00% # attempts to use FU when none available (Count)
system.cpu0.statIssuedInstType_0::No_OpClass     10502322      2.68%      2.68% # Number of instructions issued per FU type, per thread (Count)
system.cpu0.statIssuedInstType_0::IntAlu    283460508     72.24%     74.92% # Number of instructions issued per FU type, per thread (Count)
system.cpu0.statIssuedInstType_0::IntMult       252588      0.06%     74.98% # Number of instructions issued per FU type, per thread (Count)
system.cpu0.statIssuedInstType_0::IntDiv        41058      0.01%     74.99% # Number of instructions issued per FU type, per thread (Count)
system.cpu0.statIssuedInstType_0::FloatAdd      2301546      0.59%     75.58% # Number of instructions issued per FU type, per thread (Count)
system.cpu0.statIssuedInstType_0::FloatCmp            0      0.00%     75.58% # Number of instructions issued per FU type, per thread (Count)
system.cpu0.statIssuedInstType_0::FloatCvt         3240      0.00%     75.58% # Number of instructions issued per FU type, per thread (Count)
system.cpu0.statIssuedInstType_0::FloatMult            0      0.00%     75.58% # Number of instructions issued per FU type, per thread (Count)
system.cpu0.statIssuedInstType_0::FloatMultAcc            0      0.00%     75.58% # Number of instructions issued per FU type, per thread (Count)
system.cpu0.statIssuedInstType_0::FloatDiv            0      0.00%     75.58% # Number of instructions issued per FU type, per thread (Count)
system.cpu0.statIssuedInstType_0::FloatMisc            0      0.00%     75.58% # Number of instructions issued per FU type, per thread (Count)
system.cpu0.statIssuedInstType_0::FloatSqrt            0      0.00%     75.58% # Number of instructions issued per FU type, per thread (Count)
system.cpu0.statIssuedInstType_0::SimdAdd         8362      0.00%     75.58% # Number of instructions issued per FU type, per thread (Count)
system.cpu0.statIssuedInstType_0::SimdAddAcc            0      0.00%     75.58% # Number of instructions issued per FU type, per thread (Count)
system.cpu0.statIssuedInstType_0::SimdAlu       110840      0.03%     75.61% # Number of instructions issued per FU type, per thread (Count)
system.cpu0.statIssuedInstType_0::SimdCmp            0      0.00%     75.61% # Number of instructions issued per FU type, per thread (Count)
system.cpu0.statIssuedInstType_0::SimdCvt        18005      0.00%     75.61% # Number of instructions issued per FU type, per thread (Count)
system.cpu0.statIssuedInstType_0::SimdMisc       324478      0.08%     75.70% # Number of instructions issued per FU type, per thread (Count)
system.cpu0.statIssuedInstType_0::SimdMult            0      0.00%     75.70% # Number of instructions issued per FU type, per thread (Count)
system.cpu0.statIssuedInstType_0::SimdMultAcc            0      0.00%     75.70% # Number of instructions issued per FU type, per thread (Count)
system.cpu0.statIssuedInstType_0::SimdShift         3191      0.00%     75.70% # Number of instructions issued per FU type, per thread (Count)
system.cpu0.statIssuedInstType_0::SimdShiftAcc            0      0.00%     75.70% # Number of instructions issued per FU type, per thread (Count)
system.cpu0.statIssuedInstType_0::SimdDiv            0      0.00%     75.70% # Number of instructions issued per FU type, per thread (Count)
system.cpu0.statIssuedInstType_0::SimdSqrt            0      0.00%     75.70% # Number of instructions issued per FU type, per thread (Count)
system.cpu0.statIssuedInstType_0::SimdFloatAdd       308594      0.08%     75.77% # Number of instructions issued per FU type, per thread (Count)
system.cpu0.statIssuedInstType_0::SimdFloatAlu            0      0.00%     75.77% # Number of instructions issued per FU type, per thread (Count)
system.cpu0.statIssuedInstType_0::SimdFloatCmp            0      0.00%     75.77% # Number of instructions issued per FU type, per thread (Count)
system.cpu0.statIssuedInstType_0::SimdFloatCvt       308603      0.08%     75.85% # Number of instructions issued per FU type, per thread (Count)
system.cpu0.statIssuedInstType_0::SimdFloatDiv       308566      0.08%     75.93% # Number of instructions issued per FU type, per thread (Count)
system.cpu0.statIssuedInstType_0::SimdFloatMisc            0      0.00%     75.93% # Number of instructions issued per FU type, per thread (Count)
system.cpu0.statIssuedInstType_0::SimdFloatMult           58      0.00%     75.93% # Number of instructions issued per FU type, per thread (Count)
system.cpu0.statIssuedInstType_0::SimdFloatMultAcc            0      0.00%     75.93% # Number of instructions issued per FU type, per thread (Count)
system.cpu0.statIssuedInstType_0::SimdFloatSqrt            0      0.00%     75.93% # Number of instructions issued per FU type, per thread (Count)
system.cpu0.statIssuedInstType_0::SimdReduceAdd            0      0.00%     75.93% # Number of instructions issued per FU type, per thread (Count)
system.cpu0.statIssuedInstType_0::SimdReduceAlu            0      0.00%     75.93% # Number of instructions issued per FU type, per thread (Count)
system.cpu0.statIssuedInstType_0::SimdReduceCmp            0      0.00%     75.93% # Number of instructions issued per FU type, per thread (Count)
system.cpu0.statIssuedInstType_0::SimdFloatReduceAdd            0      0.00%     75.93% # Number of instructions issued per FU type, per thread (Count)
system.cpu0.statIssuedInstType_0::SimdFloatReduceCmp            0      0.00%     75.93% # Number of instructions issued per FU type, per thread (Count)
system.cpu0.statIssuedInstType_0::SimdAes            0      0.00%     75.93% # Number of instructions issued per FU type, per thread (Count)
system.cpu0.statIssuedInstType_0::SimdAesMix            0      0.00%     75.93% # Number of instructions issued per FU type, per thread (Count)
system.cpu0.statIssuedInstType_0::SimdSha1Hash            0      0.00%     75.93% # Number of instructions issued per FU type, per thread (Count)
system.cpu0.statIssuedInstType_0::SimdSha1Hash2            0      0.00%     75.93% # Number of instructions issued per FU type, per thread (Count)
system.cpu0.statIssuedInstType_0::SimdSha256Hash            0      0.00%     75.93% # Number of instructions issued per FU type, per thread (Count)
system.cpu0.statIssuedInstType_0::SimdSha256Hash2            0      0.00%     75.93% # Number of instructions issued per FU type, per thread (Count)
system.cpu0.statIssuedInstType_0::SimdShaSigma2            0      0.00%     75.93% # Number of instructions issued per FU type, per thread (Count)
system.cpu0.statIssuedInstType_0::SimdShaSigma3            0      0.00%     75.93% # Number of instructions issued per FU type, per thread (Count)
system.cpu0.statIssuedInstType_0::SimdPredAlu            0      0.00%     75.93% # Number of instructions issued per FU type, per thread (Count)
system.cpu0.statIssuedInstType_0::MemRead     60493078     15.42%     91.35% # Number of instructions issued per FU type, per thread (Count)
system.cpu0.statIssuedInstType_0::MemWrite     30716302      7.83%     99.18% # Number of instructions issued per FU type, per thread (Count)
system.cpu0.statIssuedInstType_0::FloatMemRead      2069953      0.53%     99.70% # Number of instructions issued per FU type, per thread (Count)
system.cpu0.statIssuedInstType_0::FloatMemWrite      1162380      0.30%    100.00% # Number of instructions issued per FU type, per thread (Count)
system.cpu0.statIssuedInstType_0::IprAccess            0      0.00%    100.00% # Number of instructions issued per FU type, per thread (Count)
system.cpu0.statIssuedInstType_0::InstPrefetch            0      0.00%    100.00% # Number of instructions issued per FU type, per thread (Count)
system.cpu0.statIssuedInstType_0::total     392393672                       # Number of instructions issued per FU type, per thread (Count)
system.cpu0.issueRate                        0.701798                       # Inst issue rate ((Count/Cycle))
system.cpu0.fuBusy                            6294064                       # FU busy when requested (Count)
system.cpu0.fuBusyRate                       0.016040                       # FU busy rate (busy events/executed inst) ((Count/Count))
system.cpu0.intInstQueueReads              1331462832                       # Number of integer instruction queue reads (Count)
system.cpu0.intInstQueueWrites              383111136                       # Number of integer instruction queue writes (Count)
system.cpu0.intInstQueueWakeupAccesses      377104097                       # Number of integer instruction queue wakeup accesses (Count)
system.cpu0.fpInstQueueReads                 14624677                       # Number of floating instruction queue reads (Count)
system.cpu0.fpInstQueueWrites                 7004192                       # Number of floating instruction queue writes (Count)
system.cpu0.fpInstQueueWakeupAccesses         6844273                       # Number of floating instruction queue wakeup accesses (Count)
system.cpu0.vecInstQueueReads                       0                       # Number of vector instruction queue reads (Count)
system.cpu0.vecInstQueueWrites                      0                       # Number of vector instruction queue writes (Count)
system.cpu0.vecInstQueueWakeupAccesses              0                       # Number of vector instruction queue wakeup accesses (Count)
system.cpu0.intAluAccesses                  380708346                       # Number of integer alu accesses (Count)
system.cpu0.fpAluAccesses                     7477068                       # Number of floating point alu accesses (Count)
system.cpu0.vecAluAccesses                          0                       # Number of vector alu accesses (Count)
system.cpu0.numInsts                        392348527                       # Number of executed instructions (Count)
system.cpu0.numLoadInsts                     62554574                       # Number of load instructions executed (Count)
system.cpu0.numSquashedInsts                    45145                       # Number of squashed instructions skipped in execute (Count)
system.cpu0.numSwp                                  0                       # Number of swp insts executed (Count)
system.cpu0.numNop                                  0                       # Number of nop insts executed (Count)
system.cpu0.numRefs                          94423441                       # Number of memory reference insts executed (Count)
system.cpu0.numBranches                      41335641                       # Number of branches executed (Count)
system.cpu0.numStoreInsts                    31868867                       # Number of stores executed (Count)
system.cpu0.numRate                          0.701717                       # Inst execution rate ((Count/Cycle))
system.cpu0.timesIdled                         241217                       # Number of times that the entire CPU went into an idle state and unscheduled itself (Count)
system.cpu0.idleCycles                        4144264                       # Total number of cycles that the CPU has spent unscheduled due to idling (Cycle)
system.cpu0.committedInsts                  199694523                       # Number of Instructions Simulated (Count)
system.cpu0.committedOps                    380692980                       # Number of Ops (including micro ops) Simulated (Count)
system.cpu0.cpi                              2.799908                       # CPI: Cycles Per Instruction ((Cycle/Count))
system.cpu0.totalCpi                         2.799908                       # CPI: Total CPI of All Threads ((Cycle/Count))
system.cpu0.ipc                              0.357155                       # IPC: Instructions Per Cycle ((Count/Cycle))
system.cpu0.totalIpc                         0.357155                       # IPC: Total IPC of All Threads ((Count/Cycle))
system.cpu0.intRegfileReads                 616569453                       # Number of integer regfile reads (Count)
system.cpu0.intRegfileWrites                295855890                       # Number of integer regfile writes (Count)
system.cpu0.fpRegfileReads                    4677798                       # Number of floating regfile reads (Count)
system.cpu0.fpRegfileWrites                   5371746                       # Number of floating regfile writes (Count)
system.cpu0.ccRegfileReads                  177786518                       # number of cc regfile reads (Count)
system.cpu0.ccRegfileWrites                  99874220                       # number of cc regfile writes (Count)
system.cpu0.miscRegfileReads                174706397                       # number of misc regfile reads (Count)
system.cpu0.miscRegfileWrites                    1080                       # number of misc regfile writes (Count)
system.cpu0.MemDepUnit__0.insertedLoads      55027204                       # Number of loads inserted to the mem dependence unit. (Count)
system.cpu0.MemDepUnit__0.insertedStores     31925121                       # Number of stores inserted to the mem dependence unit. (Count)
system.cpu0.MemDepUnit__0.conflictingLoads      2036125                       # Number of conflicting loads. (Count)
system.cpu0.MemDepUnit__0.conflictingStores      1995330                       # Number of conflicting stores. (Count)
system.cpu0.MemDepUnit__1.insertedLoads             0                       # Number of loads inserted to the mem dependence unit. (Count)
system.cpu0.MemDepUnit__1.insertedStores            0                       # Number of stores inserted to the mem dependence unit. (Count)
system.cpu0.MemDepUnit__1.conflictingLoads            0                       # Number of conflicting loads. (Count)
system.cpu0.MemDepUnit__1.conflictingStores            0                       # Number of conflicting stores. (Count)
system.cpu0.MemDepUnit__2.insertedLoads             0                       # Number of loads inserted to the mem dependence unit. (Count)
system.cpu0.MemDepUnit__2.insertedStores            0                       # Number of stores inserted to the mem dependence unit. (Count)
system.cpu0.MemDepUnit__2.conflictingLoads            0                       # Number of conflicting loads. (Count)
system.cpu0.MemDepUnit__2.conflictingStores            0                       # Number of conflicting stores. (Count)
system.cpu0.MemDepUnit__3.insertedLoads             0                       # Number of loads inserted to the mem dependence unit. (Count)
system.cpu0.MemDepUnit__3.insertedStores            0                       # Number of stores inserted to the mem dependence unit. (Count)
system.cpu0.MemDepUnit__3.conflictingLoads            0                       # Number of conflicting loads. (Count)
system.cpu0.MemDepUnit__3.conflictingStores            0                       # Number of conflicting stores. (Count)
system.cpu0.branchPred.lookups               41602851                       # Number of BP lookups (Count)
system.cpu0.branchPred.condPredicted         26099853                       # Number of conditional branches predicted (Count)
system.cpu0.branchPred.condIncorrect            28252                       # Number of conditional branches incorrect (Count)
system.cpu0.branchPred.BTBLookups            14230728                       # Number of BTB lookups (Count)
system.cpu0.branchPred.BTBHits               14224935                       # Number of BTB hits (Count)
system.cpu0.branchPred.BTBHitRatio           0.999593                       # BTB Hit Ratio (Ratio)
system.cpu0.branchPred.RASUsed                4934680                       # Number of times the RAS was used to get a target. (Count)
system.cpu0.branchPred.RASIncorrect                74                       # Number of incorrect RAS predictions. (Count)
system.cpu0.branchPred.indirectLookups        5029670                       # Number of indirect predictor lookups. (Count)
system.cpu0.branchPred.indirectHits           5015790                       # Number of indirect target hits. (Count)
system.cpu0.branchPred.indirectMisses           13880                       # Number of indirect misses. (Count)
system.cpu0.branchPred.indirectMispredicted         2090                       # Number of mispredicted indirect branches. (Count)
system.cpu0.commit.commitSquashedInsts        4692263                       # The number of squashed insts skipped by commit (Count)
system.cpu0.commit.commitNonSpecStalls           1731                       # The number of times commit has been forced to stall to communicate backwards (Count)
system.cpu0.commit.branchMispredicts            30019                       # The number of times a branch was mispredicted (Count)
system.cpu0.commit.numCommittedDist::samples    554358029                       # Number of insts commited each cycle (Count)
system.cpu0.commit.numCommittedDist::mean     0.686728                       # Number of insts commited each cycle (Count)
system.cpu0.commit.numCommittedDist::stdev     2.098228                       # Number of insts commited each cycle (Count)
system.cpu0.commit.numCommittedDist::underflows            0      0.00%      0.00% # Number of insts commited each cycle (Count)
system.cpu0.commit.numCommittedDist::0      487083615     87.86%     87.86% # Number of insts commited each cycle (Count)
system.cpu0.commit.numCommittedDist::1       10398870      1.88%     89.74% # Number of insts commited each cycle (Count)
system.cpu0.commit.numCommittedDist::2        3531941      0.64%     90.38% # Number of insts commited each cycle (Count)
system.cpu0.commit.numCommittedDist::3        8283843      1.49%     91.87% # Number of insts commited each cycle (Count)
system.cpu0.commit.numCommittedDist::4        3158034      0.57%     92.44% # Number of insts commited each cycle (Count)
system.cpu0.commit.numCommittedDist::5        1448688      0.26%     92.70% # Number of insts commited each cycle (Count)
system.cpu0.commit.numCommittedDist::6        2012198      0.36%     93.07% # Number of insts commited each cycle (Count)
system.cpu0.commit.numCommittedDist::7        1096785      0.20%     93.26% # Number of insts commited each cycle (Count)
system.cpu0.commit.numCommittedDist::8       37344055      6.74%    100.00% # Number of insts commited each cycle (Count)
system.cpu0.commit.numCommittedDist::overflows            0      0.00%    100.00% # Number of insts commited each cycle (Count)
system.cpu0.commit.numCommittedDist::min_value            0                       # Number of insts commited each cycle (Count)
system.cpu0.commit.numCommittedDist::max_value            8                       # Number of insts commited each cycle (Count)
system.cpu0.commit.numCommittedDist::total    554358029                       # Number of insts commited each cycle (Count)
system.cpu0.commit.instsCommitted           199694523                       # Number of instructions committed (Count)
system.cpu0.commit.opsCommitted             380692980                       # Number of ops (including micro ops) committed (Count)
system.cpu0.commit.memRefs                   85755082                       # Number of memory references committed (Count)
system.cpu0.commit.loads                     54749667                       # Number of loads committed (Count)
system.cpu0.commit.amos                             0                       # Number of atomic instructions committed (Count)
system.cpu0.commit.membars                        434                       # Number of memory barriers committed (Count)
system.cpu0.commit.branches                  41078429                       # Number of branches committed (Count)
system.cpu0.commit.vectorInstructions               0                       # Number of committed Vector instructions. (Count)
system.cpu0.commit.floating                   6776280                       # Number of committed floating point instructions. (Count)
system.cpu0.commit.integer                  366587391                       # Number of committed integer instructions. (Count)
system.cpu0.commit.functionCalls              4920027                       # Number of function calls committed. (Count)
system.cpu0.commit.committedInstType_0::No_OpClass     10463427      2.75%      2.75% # Class of committed instruction (Count)
system.cpu0.commit.committedInstType_0::IntAlu    280534705     73.69%     76.44% # Class of committed instruction (Count)
system.cpu0.commit.committedInstType_0::IntMult       251918      0.07%     76.51% # Class of committed instruction (Count)
system.cpu0.commit.committedInstType_0::IntDiv        38434      0.01%     76.52% # Class of committed instruction (Count)
system.cpu0.commit.committedInstType_0::FloatAdd      2269030      0.60%     77.11% # Class of committed instruction (Count)
system.cpu0.commit.committedInstType_0::FloatCmp            0      0.00%     77.11% # Class of committed instruction (Count)
system.cpu0.commit.committedInstType_0::FloatCvt         1920      0.00%     77.11% # Class of committed instruction (Count)
system.cpu0.commit.committedInstType_0::FloatMult            0      0.00%     77.11% # Class of committed instruction (Count)
system.cpu0.commit.committedInstType_0::FloatMultAcc            0      0.00%     77.11% # Class of committed instruction (Count)
system.cpu0.commit.committedInstType_0::FloatDiv            0      0.00%     77.11% # Class of committed instruction (Count)
system.cpu0.commit.committedInstType_0::FloatMisc            0      0.00%     77.11% # Class of committed instruction (Count)
system.cpu0.commit.committedInstType_0::FloatSqrt            0      0.00%     77.11% # Class of committed instruction (Count)
system.cpu0.commit.committedInstType_0::SimdAdd         7624      0.00%     77.11% # Class of committed instruction (Count)
system.cpu0.commit.committedInstType_0::SimdAddAcc            0      0.00%     77.11% # Class of committed instruction (Count)
system.cpu0.commit.committedInstType_0::SimdAlu       105953      0.03%     77.14% # Class of committed instruction (Count)
system.cpu0.commit.committedInstType_0::SimdCmp            0      0.00%     77.14% # Class of committed instruction (Count)
system.cpu0.commit.committedInstType_0::SimdCvt        15670      0.00%     77.15% # Class of committed instruction (Count)
system.cpu0.commit.committedInstType_0::SimdMisc       322003      0.08%     77.23% # Class of committed instruction (Count)
system.cpu0.commit.committedInstType_0::SimdMult            0      0.00%     77.23% # Class of committed instruction (Count)
system.cpu0.commit.committedInstType_0::SimdMultAcc            0      0.00%     77.23% # Class of committed instruction (Count)
system.cpu0.commit.committedInstType_0::SimdShift         1407      0.00%     77.23% # Class of committed instruction (Count)
system.cpu0.commit.committedInstType_0::SimdShiftAcc            0      0.00%     77.23% # Class of committed instruction (Count)
system.cpu0.commit.committedInstType_0::SimdDiv            0      0.00%     77.23% # Class of committed instruction (Count)
system.cpu0.commit.committedInstType_0::SimdSqrt            0      0.00%     77.23% # Class of committed instruction (Count)
system.cpu0.commit.committedInstType_0::SimdFloatAdd       308594      0.08%     77.31% # Class of committed instruction (Count)
system.cpu0.commit.committedInstType_0::SimdFloatAlu            0      0.00%     77.31% # Class of committed instruction (Count)
system.cpu0.commit.committedInstType_0::SimdFloatCmp            0      0.00%     77.31% # Class of committed instruction (Count)
system.cpu0.commit.committedInstType_0::SimdFloatCvt       308595      0.08%     77.39% # Class of committed instruction (Count)
system.cpu0.commit.committedInstType_0::SimdFloatDiv       308563      0.08%     77.47% # Class of committed instruction (Count)
system.cpu0.commit.committedInstType_0::SimdFloatMisc            0      0.00%     77.47% # Class of committed instruction (Count)
system.cpu0.commit.committedInstType_0::SimdFloatMult           55      0.00%     77.47% # Class of committed instruction (Count)
system.cpu0.commit.committedInstType_0::SimdFloatMultAcc            0      0.00%     77.47% # Class of committed instruction (Count)
system.cpu0.commit.committedInstType_0::SimdFloatSqrt            0      0.00%     77.47% # Class of committed instruction (Count)
system.cpu0.commit.committedInstType_0::SimdReduceAdd            0      0.00%     77.47% # Class of committed instruction (Count)
system.cpu0.commit.committedInstType_0::SimdReduceAlu            0      0.00%     77.47% # Class of committed instruction (Count)
system.cpu0.commit.committedInstType_0::SimdReduceCmp            0      0.00%     77.47% # Class of committed instruction (Count)
system.cpu0.commit.committedInstType_0::SimdFloatReduceAdd            0      0.00%     77.47% # Class of committed instruction (Count)
system.cpu0.commit.committedInstType_0::SimdFloatReduceCmp            0      0.00%     77.47% # Class of committed instruction (Count)
system.cpu0.commit.committedInstType_0::SimdAes            0      0.00%     77.47% # Class of committed instruction (Count)
system.cpu0.commit.committedInstType_0::SimdAesMix            0      0.00%     77.47% # Class of committed instruction (Count)
system.cpu0.commit.committedInstType_0::SimdSha1Hash            0      0.00%     77.47% # Class of committed instruction (Count)
system.cpu0.commit.committedInstType_0::SimdSha1Hash2            0      0.00%     77.47% # Class of committed instruction (Count)
system.cpu0.commit.committedInstType_0::SimdSha256Hash            0      0.00%     77.47% # Class of committed instruction (Count)
system.cpu0.commit.committedInstType_0::SimdSha256Hash2            0      0.00%     77.47% # Class of committed instruction (Count)
system.cpu0.commit.committedInstType_0::SimdShaSigma2            0      0.00%     77.47% # Class of committed instruction (Count)
system.cpu0.commit.committedInstType_0::SimdShaSigma3            0      0.00%     77.47% # Class of committed instruction (Count)
system.cpu0.commit.committedInstType_0::SimdPredAlu            0      0.00%     77.47% # Class of committed instruction (Count)
system.cpu0.commit.committedInstType_0::MemRead     52980594     13.92%     91.39% # Class of committed instruction (Count)
system.cpu0.commit.committedInstType_0::MemWrite     29856471      7.84%     99.23% # Class of committed instruction (Count)
system.cpu0.commit.committedInstType_0::FloatMemRead      1769073      0.46%     99.70% # Class of committed instruction (Count)
system.cpu0.commit.committedInstType_0::FloatMemWrite      1148944      0.30%    100.00% # Class of committed instruction (Count)
system.cpu0.commit.committedInstType_0::IprAccess            0      0.00%    100.00% # Class of committed instruction (Count)
system.cpu0.commit.committedInstType_0::InstPrefetch            0      0.00%    100.00% # Class of committed instruction (Count)
system.cpu0.commit.committedInstType_0::total    380692980                       # Class of committed instruction (Count)
system.cpu0.commit.commitEligibleSamples     37344055                       # number cycles where commit BW limit reached (Cycle)
system.cpu0.dcache.demandHits::cpu00.data     50324214                       # number of demand (read+write) hits (Count)
system.cpu0.dcache.demandHits::total         50324214                       # number of demand (read+write) hits (Count)
system.cpu0.dcache.overallHits::cpu00.data     50324215                       # number of overall hits (Count)
system.cpu0.dcache.overallHits::total        50324215                       # number of overall hits (Count)
system.cpu0.dcache.demandMisses::cpu00.data     15163952                       # number of demand (read+write) misses (Count)
system.cpu0.dcache.demandMisses::total       15163952                       # number of demand (read+write) misses (Count)
system.cpu0.dcache.overallMisses::cpu00.data     15163955                       # number of overall misses (Count)
system.cpu0.dcache.overallMisses::total      15163955                       # number of overall misses (Count)
system.cpu0.dcache.demandMissLatency::cpu00.data 853597633080                       # number of demand (read+write) miss ticks (Tick)
system.cpu0.dcache.demandMissLatency::total 853597633080                       # number of demand (read+write) miss ticks (Tick)
system.cpu0.dcache.overallMissLatency::cpu00.data 853597633080                       # number of overall miss ticks (Tick)
system.cpu0.dcache.overallMissLatency::total 853597633080                       # number of overall miss ticks (Tick)
system.cpu0.dcache.demandAccesses::cpu00.data     65488166                       # number of demand (read+write) accesses (Count)
system.cpu0.dcache.demandAccesses::total     65488166                       # number of demand (read+write) accesses (Count)
system.cpu0.dcache.overallAccesses::cpu00.data     65488170                       # number of overall (read+write) accesses (Count)
system.cpu0.dcache.overallAccesses::total     65488170                       # number of overall (read+write) accesses (Count)
system.cpu0.dcache.demandMissRate::cpu00.data     0.231553                       # miss rate for demand accesses (Ratio)
system.cpu0.dcache.demandMissRate::total     0.231553                       # miss rate for demand accesses (Ratio)
system.cpu0.dcache.overallMissRate::cpu00.data     0.231553                       # miss rate for overall accesses (Ratio)
system.cpu0.dcache.overallMissRate::total     0.231553                       # miss rate for overall accesses (Ratio)
system.cpu0.dcache.demandAvgMissLatency::cpu00.data 56291.238134                       # average overall miss latency ((Cycle/Count))
system.cpu0.dcache.demandAvgMissLatency::total 56291.238134                       # average overall miss latency ((Cycle/Count))
system.cpu0.dcache.overallAvgMissLatency::cpu00.data 56291.226997                       # average overall miss latency ((Cycle/Count))
system.cpu0.dcache.overallAvgMissLatency::total 56291.226997                       # average overall miss latency ((Cycle/Count))
system.cpu0.dcache.blockedCycles::no_mshrs    102554641                       # number of cycles access was blocked (Cycle)
system.cpu0.dcache.blockedCycles::no_targets         4513                       # number of cycles access was blocked (Cycle)
system.cpu0.dcache.blockedCauses::no_mshrs      2961608                       # number of times access was blocked (Count)
system.cpu0.dcache.blockedCauses::no_targets           57                       # number of times access was blocked (Count)
system.cpu0.dcache.avgBlocked::no_mshrs     34.628027                       # average number of cycles each access was blocked ((Cycle/Count))
system.cpu0.dcache.avgBlocked::no_targets    79.175439                       # average number of cycles each access was blocked ((Cycle/Count))
system.cpu0.dcache.writebacks::writebacks      4257573                       # number of writebacks (Count)
system.cpu0.dcache.writebacks::total          4257573                       # number of writebacks (Count)
system.cpu0.dcache.demandMshrHits::cpu00.data      5216783                       # number of demand (read+write) MSHR hits (Count)
system.cpu0.dcache.demandMshrHits::total      5216783                       # number of demand (read+write) MSHR hits (Count)
system.cpu0.dcache.overallMshrHits::cpu00.data      5216783                       # number of overall MSHR hits (Count)
system.cpu0.dcache.overallMshrHits::total      5216783                       # number of overall MSHR hits (Count)
system.cpu0.dcache.demandMshrMisses::cpu00.data      9947169                       # number of demand (read+write) MSHR misses (Count)
system.cpu0.dcache.demandMshrMisses::total      9947169                       # number of demand (read+write) MSHR misses (Count)
system.cpu0.dcache.overallMshrMisses::cpu00.data      9947170                       # number of overall MSHR misses (Count)
system.cpu0.dcache.overallMshrMisses::total      9947170                       # number of overall MSHR misses (Count)
system.cpu0.dcache.demandMshrMissLatency::cpu00.data 603043417308                       # number of demand (read+write) MSHR miss ticks (Tick)
system.cpu0.dcache.demandMshrMissLatency::total 603043417308                       # number of demand (read+write) MSHR miss ticks (Tick)
system.cpu0.dcache.overallMshrMissLatency::cpu00.data 603043429308                       # number of overall MSHR miss ticks (Tick)
system.cpu0.dcache.overallMshrMissLatency::total 603043429308                       # number of overall MSHR miss ticks (Tick)
system.cpu0.dcache.demandMshrMissRate::cpu00.data     0.151893                       # mshr miss ratio for demand accesses (Ratio)
system.cpu0.dcache.demandMshrMissRate::total     0.151893                       # mshr miss ratio for demand accesses (Ratio)
system.cpu0.dcache.overallMshrMissRate::cpu00.data     0.151893                       # mshr miss ratio for overall accesses (Ratio)
system.cpu0.dcache.overallMshrMissRate::total     0.151893                       # mshr miss ratio for overall accesses (Ratio)
system.cpu0.dcache.demandAvgMshrMissLatency::cpu00.data 60624.627701                       # average overall mshr miss latency ((Cycle/Count))
system.cpu0.dcache.demandAvgMshrMissLatency::total 60624.627701                       # average overall mshr miss latency ((Cycle/Count))
system.cpu0.dcache.overallAvgMshrMissLatency::cpu00.data 60624.622813                       # average overall mshr miss latency ((Cycle/Count))
system.cpu0.dcache.overallAvgMshrMissLatency::total 60624.622813                       # average overall mshr miss latency ((Cycle/Count))
system.cpu0.dcache.replacements               9947144                       # number of replacements (Count)
system.cpu0.dcache.ReadReq.hits::cpu00.data     21957059                       # number of ReadReq hits (Count)
system.cpu0.dcache.ReadReq.hits::total       21957059                       # number of ReadReq hits (Count)
system.cpu0.dcache.ReadReq.misses::cpu00.data     12525678                       # number of ReadReq misses (Count)
system.cpu0.dcache.ReadReq.misses::total     12525678                       # number of ReadReq misses (Count)
system.cpu0.dcache.ReadReq.missLatency::cpu00.data 675964860000                       # number of ReadReq miss ticks (Tick)
system.cpu0.dcache.ReadReq.missLatency::total 675964860000                       # number of ReadReq miss ticks (Tick)
system.cpu0.dcache.ReadReq.accesses::cpu00.data     34482737                       # number of ReadReq accesses(hits+misses) (Count)
system.cpu0.dcache.ReadReq.accesses::total     34482737                       # number of ReadReq accesses(hits+misses) (Count)
system.cpu0.dcache.ReadReq.missRate::cpu00.data     0.363245                       # miss rate for ReadReq accesses (Ratio)
system.cpu0.dcache.ReadReq.missRate::total     0.363245                       # miss rate for ReadReq accesses (Ratio)
system.cpu0.dcache.ReadReq.avgMissLatency::cpu00.data 53966.329008                       # average ReadReq miss latency ((Tick/Count))
system.cpu0.dcache.ReadReq.avgMissLatency::total 53966.329008                       # average ReadReq miss latency ((Tick/Count))
system.cpu0.dcache.ReadReq.mshrHits::cpu00.data      5141191                       # number of ReadReq MSHR hits (Count)
system.cpu0.dcache.ReadReq.mshrHits::total      5141191                       # number of ReadReq MSHR hits (Count)
system.cpu0.dcache.ReadReq.mshrMisses::cpu00.data      7384487                       # number of ReadReq MSHR misses (Count)
system.cpu0.dcache.ReadReq.mshrMisses::total      7384487                       # number of ReadReq MSHR misses (Count)
system.cpu0.dcache.ReadReq.mshrMissLatency::cpu00.data 429873737000                       # number of ReadReq MSHR miss ticks (Tick)
system.cpu0.dcache.ReadReq.mshrMissLatency::total 429873737000                       # number of ReadReq MSHR miss ticks (Tick)
system.cpu0.dcache.ReadReq.mshrMissRate::cpu00.data     0.214150                       # mshr miss rate for ReadReq accesses (Ratio)
system.cpu0.dcache.ReadReq.mshrMissRate::total     0.214150                       # mshr miss rate for ReadReq accesses (Ratio)
system.cpu0.dcache.ReadReq.avgMshrMissLatency::cpu00.data 58213.080611                       # average ReadReq mshr miss latency ((Tick/Count))
system.cpu0.dcache.ReadReq.avgMshrMissLatency::total 58213.080611                       # average ReadReq mshr miss latency ((Tick/Count))
system.cpu0.dcache.SoftPFReq.hits::cpu00.data            1                       # number of SoftPFReq hits (Count)
system.cpu0.dcache.SoftPFReq.hits::total            1                       # number of SoftPFReq hits (Count)
system.cpu0.dcache.SoftPFReq.misses::cpu00.data            3                       # number of SoftPFReq misses (Count)
system.cpu0.dcache.SoftPFReq.misses::total            3                       # number of SoftPFReq misses (Count)
system.cpu0.dcache.SoftPFReq.accesses::cpu00.data            4                       # number of SoftPFReq accesses(hits+misses) (Count)
system.cpu0.dcache.SoftPFReq.accesses::total            4                       # number of SoftPFReq accesses(hits+misses) (Count)
system.cpu0.dcache.SoftPFReq.missRate::cpu00.data     0.750000                       # miss rate for SoftPFReq accesses (Ratio)
system.cpu0.dcache.SoftPFReq.missRate::total     0.750000                       # miss rate for SoftPFReq accesses (Ratio)
system.cpu0.dcache.SoftPFReq.mshrMisses::cpu00.data            1                       # number of SoftPFReq MSHR misses (Count)
system.cpu0.dcache.SoftPFReq.mshrMisses::total            1                       # number of SoftPFReq MSHR misses (Count)
system.cpu0.dcache.SoftPFReq.mshrMissLatency::cpu00.data        12000                       # number of SoftPFReq MSHR miss ticks (Tick)
system.cpu0.dcache.SoftPFReq.mshrMissLatency::total        12000                       # number of SoftPFReq MSHR miss ticks (Tick)
system.cpu0.dcache.SoftPFReq.mshrMissRate::cpu00.data     0.250000                       # mshr miss rate for SoftPFReq accesses (Ratio)
system.cpu0.dcache.SoftPFReq.mshrMissRate::total     0.250000                       # mshr miss rate for SoftPFReq accesses (Ratio)
system.cpu0.dcache.SoftPFReq.avgMshrMissLatency::cpu00.data        12000                       # average SoftPFReq mshr miss latency ((Tick/Count))
system.cpu0.dcache.SoftPFReq.avgMshrMissLatency::total        12000                       # average SoftPFReq mshr miss latency ((Tick/Count))
system.cpu0.dcache.WriteReq.hits::cpu00.data     28367155                       # number of WriteReq hits (Count)
system.cpu0.dcache.WriteReq.hits::total      28367155                       # number of WriteReq hits (Count)
system.cpu0.dcache.WriteReq.misses::cpu00.data      2638274                       # number of WriteReq misses (Count)
system.cpu0.dcache.WriteReq.misses::total      2638274                       # number of WriteReq misses (Count)
system.cpu0.dcache.WriteReq.missLatency::cpu00.data 177632773080                       # number of WriteReq miss ticks (Tick)
system.cpu0.dcache.WriteReq.missLatency::total 177632773080                       # number of WriteReq miss ticks (Tick)
system.cpu0.dcache.WriteReq.accesses::cpu00.data     31005429                       # number of WriteReq accesses(hits+misses) (Count)
system.cpu0.dcache.WriteReq.accesses::total     31005429                       # number of WriteReq accesses(hits+misses) (Count)
system.cpu0.dcache.WriteReq.missRate::cpu00.data     0.085091                       # miss rate for WriteReq accesses (Ratio)
system.cpu0.dcache.WriteReq.missRate::total     0.085091                       # miss rate for WriteReq accesses (Ratio)
system.cpu0.dcache.WriteReq.avgMissLatency::cpu00.data 67329.160307                       # average WriteReq miss latency ((Tick/Count))
system.cpu0.dcache.WriteReq.avgMissLatency::total 67329.160307                       # average WriteReq miss latency ((Tick/Count))
system.cpu0.dcache.WriteReq.mshrHits::cpu00.data        75592                       # number of WriteReq MSHR hits (Count)
system.cpu0.dcache.WriteReq.mshrHits::total        75592                       # number of WriteReq MSHR hits (Count)
system.cpu0.dcache.WriteReq.mshrMisses::cpu00.data      2562682                       # number of WriteReq MSHR misses (Count)
system.cpu0.dcache.WriteReq.mshrMisses::total      2562682                       # number of WriteReq MSHR misses (Count)
system.cpu0.dcache.WriteReq.mshrMissLatency::cpu00.data 173169680308                       # number of WriteReq MSHR miss ticks (Tick)
system.cpu0.dcache.WriteReq.mshrMissLatency::total 173169680308                       # number of WriteReq MSHR miss ticks (Tick)
system.cpu0.dcache.WriteReq.mshrMissRate::cpu00.data     0.082653                       # mshr miss rate for WriteReq accesses (Ratio)
system.cpu0.dcache.WriteReq.mshrMissRate::total     0.082653                       # mshr miss rate for WriteReq accesses (Ratio)
system.cpu0.dcache.WriteReq.avgMshrMissLatency::cpu00.data 67573.612453                       # average WriteReq mshr miss latency ((Tick/Count))
system.cpu0.dcache.WriteReq.avgMshrMissLatency::total 67573.612453                       # average WriteReq mshr miss latency ((Tick/Count))
system.cpu0.dcache.power_state.pwrStateResidencyTicks::UNDEFINED 279971790000                       # Cumulative time (in ticks) in various power states (Tick)
system.cpu0.dcache.tags.tagsInUse           15.999877                       # Average ticks per tags in use ((Tick/Count))
system.cpu0.dcache.tags.totalRefs            60271385                       # Total number of references to valid blocks. (Count)
system.cpu0.dcache.tags.sampledRefs           9947160                       # Sample count of references to valid blocks. (Count)
system.cpu0.dcache.tags.avgRefs              6.059155                       # Average number of references to valid blocks. ((Count/Count))
system.cpu0.dcache.tags.warmupTick             216500                       # The tick when the warmup percentage was hit. (Tick)
system.cpu0.dcache.tags.occupancies::cpu00.data    15.999877                       # Average occupied blocks per tick, per requestor ((Count/Tick))
system.cpu0.dcache.tags.avgOccs::cpu00.data     0.999992                       # Average percentage of cache occupancy ((Ratio/Tick))
system.cpu0.dcache.tags.avgOccs::total       0.999992                       # Average percentage of cache occupancy ((Ratio/Tick))
system.cpu0.dcache.tags.occupanciesTaskId::1024           16                       # Occupied blocks per task id (Count)
system.cpu0.dcache.tags.ageTaskId_1024::2           16                       # Occupied blocks per task id, per block age (Count)
system.cpu0.dcache.tags.ratioOccsTaskId::1024            1                       # Ratio of occupied blocks and all blocks, per task id (Ratio)
system.cpu0.dcache.tags.tagAccesses         140923500                       # Number of tag accesses (Count)
system.cpu0.dcache.tags.dataAccesses        140923500                       # Number of data accesses (Count)
system.cpu0.dcache.tags.power_state.pwrStateResidencyTicks::UNDEFINED 279971790000                       # Cumulative time (in ticks) in various power states (Tick)
system.cpu0.decode.idleCycles                25914146                       # Number of cycles decode is idle (Cycle)
system.cpu0.decode.blockedCycles            474811146                       # Number of cycles decode is blocked (Cycle)
system.cpu0.decode.runCycles                 39790172                       # Number of cycles decode is running (Cycle)
system.cpu0.decode.unblockCycles             14407665                       # Number of cycles decode is unblocking (Cycle)
system.cpu0.decode.squashCycles                 58809                       # Number of cycles decode is squashing (Cycle)
system.cpu0.decode.branchResolved            14172963                       # Number of times decode resolved a branch (Count)
system.cpu0.decode.branchMispred                 1874                       # Number of times decode detected a branch misprediction (Count)
system.cpu0.decode.decodedInsts             385976457                       # Number of instructions handled by decode (Count)
system.cpu0.decode.squashedInsts                 9051                       # Number of squashed instructions handled by decode (Count)
system.cpu0.dtb_walker_cache.blockedCycles::no_mshrs            0                       # number of cycles access was blocked (Cycle)
system.cpu0.dtb_walker_cache.blockedCycles::no_targets            0                       # number of cycles access was blocked (Cycle)
system.cpu0.dtb_walker_cache.blockedCauses::no_mshrs            0                       # number of times access was blocked (Count)
system.cpu0.dtb_walker_cache.blockedCauses::no_targets            0                       # number of times access was blocked (Count)
system.cpu0.dtb_walker_cache.avgBlocked::no_mshrs          nan                       # average number of cycles each access was blocked ((Cycle/Count))
system.cpu0.dtb_walker_cache.avgBlocked::no_targets          nan                       # average number of cycles each access was blocked ((Cycle/Count))
system.cpu0.dtb_walker_cache.replacements            0                       # number of replacements (Count)
system.cpu0.dtb_walker_cache.power_state.pwrStateResidencyTicks::UNDEFINED 279971790000                       # Cumulative time (in ticks) in various power states (Tick)
system.cpu0.dtb_walker_cache.tags.tagsInUse            0                       # Average ticks per tags in use ((Tick/Count))
system.cpu0.dtb_walker_cache.tags.totalRefs            0                       # Total number of references to valid blocks. (Count)
system.cpu0.dtb_walker_cache.tags.sampledRefs            0                       # Sample count of references to valid blocks. (Count)
system.cpu0.dtb_walker_cache.tags.avgRefs          nan                       # Average number of references to valid blocks. ((Count/Count))
system.cpu0.dtb_walker_cache.tags.warmupTick            0                       # The tick when the warmup percentage was hit. (Tick)
system.cpu0.dtb_walker_cache.tags.tagAccesses            0                       # Number of tag accesses (Count)
system.cpu0.dtb_walker_cache.tags.dataAccesses            0                       # Number of data accesses (Count)
system.cpu0.dtb_walker_cache.tags.power_state.pwrStateResidencyTicks::UNDEFINED 279971790000                       # Cumulative time (in ticks) in various power states (Tick)
system.cpu0.fetch.icacheStallCycles          69544311                       # Number of cycles fetch is stalled on an Icache miss (Cycle)
system.cpu0.fetch.insts                     203612849                       # Number of instructions fetch has processed (Count)
system.cpu0.fetch.branches                   41602851                       # Number of branches that fetch encountered (Count)
system.cpu0.fetch.predictedBranches          24175405                       # Number of branches that fetch has predicted taken (Count)
system.cpu0.fetch.cycles                    485345956                       # Number of cycles fetch has run and was not squashing or blocked (Cycle)
system.cpu0.fetch.squashCycles                 121260                       # Number of cycles fetch has spent squashing (Cycle)
system.cpu0.fetch.miscStallCycles                3751                       # Number of cycles fetch has spent waiting on interrupts, or bad addresses, or out of MSHRs (Cycle)
system.cpu0.fetch.pendingTrapStallCycles        26076                       # Number of stall cycles due to pending traps (Cycle)
system.cpu0.fetch.pendingQuiesceStallCycles          108                       # Number of stall cycles due to pending quiesce instructions (Cycle)
system.cpu0.fetch.icacheWaitRetryStallCycles         1106                       # Number of stall cycles due to full MSHR (Cycle)
system.cpu0.fetch.cacheLines                 31996442                       # Number of cache lines fetched (Count)
system.cpu0.fetch.icacheSquashes                 8475                       # Number of outstanding Icache misses that were squashed (Count)
system.cpu0.fetch.nisnDist::samples         554981938                       # Number of instructions fetched each cycle (Total) (Count)
system.cpu0.fetch.nisnDist::mean             0.698522                       # Number of instructions fetched each cycle (Total) (Count)
system.cpu0.fetch.nisnDist::stdev            2.054232                       # Number of instructions fetched each cycle (Total) (Count)
system.cpu0.fetch.nisnDist::underflows              0      0.00%      0.00% # Number of instructions fetched each cycle (Total) (Count)
system.cpu0.fetch.nisnDist::0               488537714     88.03%     88.03% # Number of instructions fetched each cycle (Total) (Count)
system.cpu0.fetch.nisnDist::1                 3535113      0.64%     88.66% # Number of instructions fetched each cycle (Total) (Count)
system.cpu0.fetch.nisnDist::2                 3363320      0.61%     89.27% # Number of instructions fetched each cycle (Total) (Count)
system.cpu0.fetch.nisnDist::3                 4803003      0.87%     90.14% # Number of instructions fetched each cycle (Total) (Count)
system.cpu0.fetch.nisnDist::4                 9985934      1.80%     91.94% # Number of instructions fetched each cycle (Total) (Count)
system.cpu0.fetch.nisnDist::5                 7818286      1.41%     93.34% # Number of instructions fetched each cycle (Total) (Count)
system.cpu0.fetch.nisnDist::6                 3219512      0.58%     93.92% # Number of instructions fetched each cycle (Total) (Count)
system.cpu0.fetch.nisnDist::7                 5108261      0.92%     94.84% # Number of instructions fetched each cycle (Total) (Count)
system.cpu0.fetch.nisnDist::8                28610795      5.16%    100.00% # Number of instructions fetched each cycle (Total) (Count)
system.cpu0.fetch.nisnDist::overflows               0      0.00%    100.00% # Number of instructions fetched each cycle (Total) (Count)
system.cpu0.fetch.nisnDist::min_value               0                       # Number of instructions fetched each cycle (Total) (Count)
system.cpu0.fetch.nisnDist::max_value               8                       # Number of instructions fetched each cycle (Total) (Count)
system.cpu0.fetch.nisnDist::total           554981938                       # Number of instructions fetched each cycle (Total) (Count)
system.cpu0.fetch.branchRate                 0.074407                       # Number of branch fetches per cycle (Ratio)
system.cpu0.fetch.rate                       0.364163                       # Number of inst fetches per cycle ((Count/Cycle))
system.cpu0.icache.demandHits::cpu00.inst     31162186                       # number of demand (read+write) hits (Count)
system.cpu0.icache.demandHits::total         31162186                       # number of demand (read+write) hits (Count)
system.cpu0.icache.overallHits::cpu00.inst     31162186                       # number of overall hits (Count)
system.cpu0.icache.overallHits::total        31162186                       # number of overall hits (Count)
system.cpu0.icache.demandMisses::cpu00.inst       834250                       # number of demand (read+write) misses (Count)
system.cpu0.icache.demandMisses::total         834250                       # number of demand (read+write) misses (Count)
system.cpu0.icache.overallMisses::cpu00.inst       834250                       # number of overall misses (Count)
system.cpu0.icache.overallMisses::total        834250                       # number of overall misses (Count)
system.cpu0.icache.demandMissLatency::cpu00.inst  22069807467                       # number of demand (read+write) miss ticks (Tick)
system.cpu0.icache.demandMissLatency::total  22069807467                       # number of demand (read+write) miss ticks (Tick)
system.cpu0.icache.overallMissLatency::cpu00.inst  22069807467                       # number of overall miss ticks (Tick)
system.cpu0.icache.overallMissLatency::total  22069807467                       # number of overall miss ticks (Tick)
system.cpu0.icache.demandAccesses::cpu00.inst     31996436                       # number of demand (read+write) accesses (Count)
system.cpu0.icache.demandAccesses::total     31996436                       # number of demand (read+write) accesses (Count)
system.cpu0.icache.overallAccesses::cpu00.inst     31996436                       # number of overall (read+write) accesses (Count)
system.cpu0.icache.overallAccesses::total     31996436                       # number of overall (read+write) accesses (Count)
system.cpu0.icache.demandMissRate::cpu00.inst     0.026073                       # miss rate for demand accesses (Ratio)
system.cpu0.icache.demandMissRate::total     0.026073                       # miss rate for demand accesses (Ratio)
system.cpu0.icache.overallMissRate::cpu00.inst     0.026073                       # miss rate for overall accesses (Ratio)
system.cpu0.icache.overallMissRate::total     0.026073                       # miss rate for overall accesses (Ratio)
system.cpu0.icache.demandAvgMissLatency::cpu00.inst 26454.668825                       # average overall miss latency ((Cycle/Count))
system.cpu0.icache.demandAvgMissLatency::total 26454.668825                       # average overall miss latency ((Cycle/Count))
system.cpu0.icache.overallAvgMissLatency::cpu00.inst 26454.668825                       # average overall miss latency ((Cycle/Count))
system.cpu0.icache.overallAvgMissLatency::total 26454.668825                       # average overall miss latency ((Cycle/Count))
system.cpu0.icache.blockedCycles::no_mshrs         2388                       # number of cycles access was blocked (Cycle)
system.cpu0.icache.blockedCycles::no_targets            0                       # number of cycles access was blocked (Cycle)
system.cpu0.icache.blockedCauses::no_mshrs           31                       # number of times access was blocked (Count)
system.cpu0.icache.blockedCauses::no_targets            0                       # number of times access was blocked (Count)
system.cpu0.icache.avgBlocked::no_mshrs     77.032258                       # average number of cycles each access was blocked ((Cycle/Count))
system.cpu0.icache.avgBlocked::no_targets          nan                       # average number of cycles each access was blocked ((Cycle/Count))
system.cpu0.icache.writebacks::writebacks       832812                       # number of writebacks (Count)
system.cpu0.icache.writebacks::total           832812                       # number of writebacks (Count)
system.cpu0.icache.demandMshrHits::cpu00.inst         1159                       # number of demand (read+write) MSHR hits (Count)
system.cpu0.icache.demandMshrHits::total         1159                       # number of demand (read+write) MSHR hits (Count)
system.cpu0.icache.overallMshrHits::cpu00.inst         1159                       # number of overall MSHR hits (Count)
system.cpu0.icache.overallMshrHits::total         1159                       # number of overall MSHR hits (Count)
system.cpu0.icache.demandMshrMisses::cpu00.inst       833091                       # number of demand (read+write) MSHR misses (Count)
system.cpu0.icache.demandMshrMisses::total       833091                       # number of demand (read+write) MSHR misses (Count)
system.cpu0.icache.overallMshrMisses::cpu00.inst       833091                       # number of overall MSHR misses (Count)
system.cpu0.icache.overallMshrMisses::total       833091                       # number of overall MSHR misses (Count)
system.cpu0.icache.demandMshrMissLatency::cpu00.inst  21086190468                       # number of demand (read+write) MSHR miss ticks (Tick)
system.cpu0.icache.demandMshrMissLatency::total  21086190468                       # number of demand (read+write) MSHR miss ticks (Tick)
system.cpu0.icache.overallMshrMissLatency::cpu00.inst  21086190468                       # number of overall MSHR miss ticks (Tick)
system.cpu0.icache.overallMshrMissLatency::total  21086190468                       # number of overall MSHR miss ticks (Tick)
system.cpu0.icache.demandMshrMissRate::cpu00.inst     0.026037                       # mshr miss ratio for demand accesses (Ratio)
system.cpu0.icache.demandMshrMissRate::total     0.026037                       # mshr miss ratio for demand accesses (Ratio)
system.cpu0.icache.overallMshrMissRate::cpu00.inst     0.026037                       # mshr miss ratio for overall accesses (Ratio)
system.cpu0.icache.overallMshrMissRate::total     0.026037                       # mshr miss ratio for overall accesses (Ratio)
system.cpu0.icache.demandAvgMshrMissLatency::cpu00.inst 25310.788939                       # average overall mshr miss latency ((Cycle/Count))
system.cpu0.icache.demandAvgMshrMissLatency::total 25310.788939                       # average overall mshr miss latency ((Cycle/Count))
system.cpu0.icache.overallAvgMshrMissLatency::cpu00.inst 25310.788939                       # average overall mshr miss latency ((Cycle/Count))
system.cpu0.icache.overallAvgMshrMissLatency::total 25310.788939                       # average overall mshr miss latency ((Cycle/Count))
system.cpu0.icache.replacements                832812                       # number of replacements (Count)
system.cpu0.icache.ReadReq.hits::cpu00.inst     31162186                       # number of ReadReq hits (Count)
system.cpu0.icache.ReadReq.hits::total       31162186                       # number of ReadReq hits (Count)
system.cpu0.icache.ReadReq.misses::cpu00.inst       834250                       # number of ReadReq misses (Count)
system.cpu0.icache.ReadReq.misses::total       834250                       # number of ReadReq misses (Count)
system.cpu0.icache.ReadReq.missLatency::cpu00.inst  22069807467                       # number of ReadReq miss ticks (Tick)
system.cpu0.icache.ReadReq.missLatency::total  22069807467                       # number of ReadReq miss ticks (Tick)
system.cpu0.icache.ReadReq.accesses::cpu00.inst     31996436                       # number of ReadReq accesses(hits+misses) (Count)
system.cpu0.icache.ReadReq.accesses::total     31996436                       # number of ReadReq accesses(hits+misses) (Count)
system.cpu0.icache.ReadReq.missRate::cpu00.inst     0.026073                       # miss rate for ReadReq accesses (Ratio)
system.cpu0.icache.ReadReq.missRate::total     0.026073                       # miss rate for ReadReq accesses (Ratio)
system.cpu0.icache.ReadReq.avgMissLatency::cpu00.inst 26454.668825                       # average ReadReq miss latency ((Tick/Count))
system.cpu0.icache.ReadReq.avgMissLatency::total 26454.668825                       # average ReadReq miss latency ((Tick/Count))
system.cpu0.icache.ReadReq.mshrHits::cpu00.inst         1159                       # number of ReadReq MSHR hits (Count)
system.cpu0.icache.ReadReq.mshrHits::total         1159                       # number of ReadReq MSHR hits (Count)
system.cpu0.icache.ReadReq.mshrMisses::cpu00.inst       833091                       # number of ReadReq MSHR misses (Count)
system.cpu0.icache.ReadReq.mshrMisses::total       833091                       # number of ReadReq MSHR misses (Count)
system.cpu0.icache.ReadReq.mshrMissLatency::cpu00.inst  21086190468                       # number of ReadReq MSHR miss ticks (Tick)
system.cpu0.icache.ReadReq.mshrMissLatency::total  21086190468                       # number of ReadReq MSHR miss ticks (Tick)
system.cpu0.icache.ReadReq.mshrMissRate::cpu00.inst     0.026037                       # mshr miss rate for ReadReq accesses (Ratio)
system.cpu0.icache.ReadReq.mshrMissRate::total     0.026037                       # mshr miss rate for ReadReq accesses (Ratio)
system.cpu0.icache.ReadReq.avgMshrMissLatency::cpu00.inst 25310.788939                       # average ReadReq mshr miss latency ((Tick/Count))
system.cpu0.icache.ReadReq.avgMshrMissLatency::total 25310.788939                       # average ReadReq mshr miss latency ((Tick/Count))
system.cpu0.icache.power_state.pwrStateResidencyTicks::UNDEFINED 279971790000                       # Cumulative time (in ticks) in various power states (Tick)
system.cpu0.icache.tags.tagsInUse          255.889314                       # Average ticks per tags in use ((Tick/Count))
system.cpu0.icache.tags.totalRefs            31995277                       # Total number of references to valid blocks. (Count)
system.cpu0.icache.tags.sampledRefs            833091                       # Sample count of references to valid blocks. (Count)
system.cpu0.icache.tags.avgRefs             38.405501                       # Average number of references to valid blocks. ((Count/Count))
system.cpu0.icache.tags.warmupTick              87500                       # The tick when the warmup percentage was hit. (Tick)
system.cpu0.icache.tags.occupancies::cpu00.inst   255.889314                       # Average occupied blocks per tick, per requestor ((Count/Tick))
system.cpu0.icache.tags.avgOccs::cpu00.inst     0.999568                       # Average percentage of cache occupancy ((Ratio/Tick))
system.cpu0.icache.tags.avgOccs::total       0.999568                       # Average percentage of cache occupancy ((Ratio/Tick))
system.cpu0.icache.tags.occupanciesTaskId::1024          256                       # Occupied blocks per task id (Count)
system.cpu0.icache.tags.ageTaskId_1024::2          169                       # Occupied blocks per task id, per block age (Count)
system.cpu0.icache.tags.ageTaskId_1024::4           87                       # Occupied blocks per task id, per block age (Count)
system.cpu0.icache.tags.ratioOccsTaskId::1024            1                       # Ratio of occupied blocks and all blocks, per task id (Ratio)
system.cpu0.icache.tags.tagAccesses          64825963                       # Number of tag accesses (Count)
system.cpu0.icache.tags.dataAccesses         64825963                       # Number of data accesses (Count)
system.cpu0.icache.tags.power_state.pwrStateResidencyTicks::UNDEFINED 279971790000                       # Cumulative time (in ticks) in various power states (Tick)
system.cpu0.iew.idleCycles                          0                       # Number of cycles IEW is idle (Cycle)
system.cpu0.iew.squashCycles                    58809                       # Number of cycles IEW is squashing (Cycle)
system.cpu0.iew.blockCycles                  35221553                       # Number of cycles IEW is blocking (Cycle)
system.cpu0.iew.unblockCycles                81062492                       # Number of cycles IEW is unblocking (Cycle)
system.cpu0.iew.dispatchedInsts             385403397                       # Number of instructions dispatched to IQ (Count)
system.cpu0.iew.dispSquashedInsts                1719                       # Number of squashed instructions skipped by dispatch (Count)
system.cpu0.iew.dispLoadInsts                55027204                       # Number of dispatched load instructions (Count)
system.cpu0.iew.dispStoreInsts               31925121                       # Number of dispatched store instructions (Count)
system.cpu0.iew.dispNonSpecInsts                 1422                       # Number of dispatched non-speculative instructions (Count)
system.cpu0.iew.iqFullEvents                  1028545                       # Number of times the IQ has become full, causing a stall (Count)
system.cpu0.iew.lsqFullEvents                79111252                       # Number of times the LSQ has become full, causing a stall (Count)
system.cpu0.iew.memOrderViolationEvents          1541                       # Number of memory order violations (Count)
system.cpu0.iew.predictedTakenIncorrect         10811                       # Number of branches that were predicted taken incorrectly (Count)
system.cpu0.iew.predictedNotTakenIncorrect        23830                       # Number of branches that were predicted not taken incorrectly (Count)
system.cpu0.iew.branchMispredicts               34641                       # Number of branch mispredicts detected at execute (Count)
system.cpu0.iew.instsToCommit               384699575                       # Cumulative count of insts sent to commit (Count)
system.cpu0.iew.writebackCount              383948370                       # Cumulative count of insts written-back (Count)
system.cpu0.iew.producerInst                249116932                       # Number of instructions producing a value (Count)
system.cpu0.iew.consumerInst                417360953                       # Number of instructions consuming a value (Count)
system.cpu0.iew.wbRate                       0.686694                       # Insts written-back per cycle ((Count/Cycle))
system.cpu0.iew.wbFanout                     0.596886                       # Average fanout of values written-back ((Count/Count))
system.cpu0.interrupts.clk_domain.clock          8000                       # Clock period in ticks (Tick)
system.cpu0.itb_walker_cache.blockedCycles::no_mshrs            0                       # number of cycles access was blocked (Cycle)
system.cpu0.itb_walker_cache.blockedCycles::no_targets            0                       # number of cycles access was blocked (Cycle)
system.cpu0.itb_walker_cache.blockedCauses::no_mshrs            0                       # number of times access was blocked (Count)
system.cpu0.itb_walker_cache.blockedCauses::no_targets            0                       # number of times access was blocked (Count)
system.cpu0.itb_walker_cache.avgBlocked::no_mshrs          nan                       # average number of cycles each access was blocked ((Cycle/Count))
system.cpu0.itb_walker_cache.avgBlocked::no_targets          nan                       # average number of cycles each access was blocked ((Cycle/Count))
system.cpu0.itb_walker_cache.replacements            0                       # number of replacements (Count)
system.cpu0.itb_walker_cache.power_state.pwrStateResidencyTicks::UNDEFINED 279971790000                       # Cumulative time (in ticks) in various power states (Tick)
system.cpu0.itb_walker_cache.tags.tagsInUse            0                       # Average ticks per tags in use ((Tick/Count))
system.cpu0.itb_walker_cache.tags.totalRefs            0                       # Total number of references to valid blocks. (Count)
system.cpu0.itb_walker_cache.tags.sampledRefs            0                       # Sample count of references to valid blocks. (Count)
system.cpu0.itb_walker_cache.tags.avgRefs          nan                       # Average number of references to valid blocks. ((Count/Count))
system.cpu0.itb_walker_cache.tags.warmupTick            0                       # The tick when the warmup percentage was hit. (Tick)
system.cpu0.itb_walker_cache.tags.tagAccesses            0                       # Number of tag accesses (Count)
system.cpu0.itb_walker_cache.tags.dataAccesses            0                       # Number of data accesses (Count)
system.cpu0.itb_walker_cache.tags.power_state.pwrStateResidencyTicks::UNDEFINED 279971790000                       # Cumulative time (in ticks) in various power states (Tick)
system.cpu0.lsq0.forwLoads                   20544215                       # Number of loads that had data forwarded from stores (Count)
system.cpu0.lsq0.squashedLoads                 277537                       # Number of loads squashed (Count)
system.cpu0.lsq0.ignoredResponses                 158                       # Number of memory responses ignored because the instruction is squashed (Count)
system.cpu0.lsq0.memOrderViolation               1541                       # Number of memory ordering violations (Count)
system.cpu0.lsq0.squashedStores                919706                       # Number of stores squashed (Count)
[...]
system.tol2bus.pktSize_system.cpu08.dcache.mem_side_port::system.l2.cpu_side_port    906624512                       # Cumulative packet size per connected requestor and responder (Byte)
system.tol2bus.pktSize_system.cpu09.icache.mem_side_port::system.l2.cpu_side_port    106778752                       # Cumulative packet size per connected requestor and responder (Byte)
system.tol2bus.pktSize_system.cpu09.dcache.mem_side_port::system.l2.cpu_side_port    903750080                       # Cumulative packet size per connected requestor and responder (Byte)
system.tol2bus.pktSize_system.cpu10.icache.mem_side_port::system.l2.cpu_side_port     79947584                       # Cumulative packet size per connected requestor and responder (Byte)
system.tol2bus.pktSize_system.cpu10.dcache.mem_side_port::system.l2.cpu_side_port    906844736                       # Cumulative packet size per connected requestor and responder (Byte)
system.tol2bus.pktSize_system.cpu11.icache.mem_side_port::system.l2.cpu_side_port    146037696                       # Cumulative packet size per connected requestor and responder (Byte)
system.tol2bus.pktSize_system.cpu11.dcache.mem_side_port::system.l2.cpu_side_port    909318976                       # Cumulative packet size per connected requestor and responder (Byte)
system.tol2bus.pktSize_system.cpu12.icache.mem_side_port::system.l2.cpu_side_port     40809536                       # Cumulative packet size per connected requestor and responder (Byte)
system.tol2bus.pktSize_system.cpu12.dcache.mem_side_port::system.l2.cpu_side_port    903485248                       # Cumulative packet size per connected requestor and responder (Byte)
system.tol2bus.pktSize_system.cpu13.icache.mem_side_port::system.l2.cpu_side_port       842880                       # Cumulative packet size per connected requestor and responder (Byte)
system.tol2bus.pktSize_system.cpu13.dcache.mem_side_port::system.l2.cpu_side_port    908140416                       # Cumulative packet size per connected requestor and responder (Byte)
system.tol2bus.pktSize_system.cpu14.icache.mem_side_port::system.l2.cpu_side_port    146180480                       # Cumulative packet size per connected requestor and responder (Byte)
system.tol2bus.pktSize_system.cpu14.dcache.mem_side_port::system.l2.cpu_side_port    909728256                       # Cumulative packet size per connected requestor and responder (Byte)
system.tol2bus.pktSize_system.cpu15.icache.mem_side_port::system.l2.cpu_side_port       834944                       # Cumulative packet size per connected requestor and responder (Byte)
system.tol2bus.pktSize_system.cpu15.dcache.mem_side_port::system.l2.cpu_side_port    903520768                       # Cumulative packet size per connected requestor and responder (Byte)
system.tol2bus.pktSize::total             15508667520                       # Cumulative packet size per connected requestor and responder (Byte)
system.tol2bus.snoops                         6964285                       # Total snoops (Count)
system.tol2bus.snoopTraffic                 369842176                       # Total snoop traffic (Byte)
system.tol2bus.snoopFanout::samples         174045975                       # Request fanout histogram (Count)
system.tol2bus.snoopFanout::mean             0.229523                       # Request fanout histogram (Count)
system.tol2bus.snoopFanout::stdev            0.420527                       # Request fanout histogram (Count)
system.tol2bus.snoopFanout::underflows              0      0.00%      0.00% # Request fanout histogram (Count)
system.tol2bus.snoopFanout::0               134098481     77.05%     77.05% # Request fanout histogram (Count)
system.tol2bus.snoopFanout::1                39947438     22.95%    100.00% # Request fanout histogram (Count)
system.tol2bus.snoopFanout::2                      56      0.00%    100.00% # Request fanout histogram (Count)
system.tol2bus.snoopFanout::3                       0      0.00%    100.00% # Request fanout histogram (Count)
system.tol2bus.snoopFanout::4                       0      0.00%    100.00% # Request fanout histogram (Count)
system.tol2bus.snoopFanout::5                       0      0.00%    100.00% # Request fanout histogram (Count)
system.tol2bus.snoopFanout::6                       0      0.00%    100.00% # Request fanout histogram (Count)
system.tol2bus.snoopFanout::7                       0      0.00%    100.00% # Request fanout histogram (Count)
system.tol2bus.snoopFanout::8                       0      0.00%    100.00% # Request fanout histogram (Count)
system.tol2bus.snoopFanout::9                       0      0.00%    100.00% # Request fanout histogram (Count)
system.tol2bus.snoopFanout::10                      0      0.00%    100.00% # Request fanout histogram (Count)
system.tol2bus.snoopFanout::11                      0      0.00%    100.00% # Request fanout histogram (Count)
system.tol2bus.snoopFanout::12                      0      0.00%    100.00% # Request fanout histogram (Count)
system.tol2bus.snoopFanout::13                      0      0.00%    100.00% # Request fanout histogram (Count)
system.tol2bus.snoopFanout::14                      0      0.00%    100.00% # Request fanout histogram (Count)
system.tol2bus.snoopFanout::15                      0      0.00%    100.00% # Request fanout histogram (Count)
system.tol2bus.snoopFanout::16                      0      0.00%    100.00% # Request fanout histogram (Count)
system.tol2bus.snoopFanout::17                      0      0.00%    100.00% # Request fanout histogram (Count)
system.tol2bus.snoopFanout::18                      0      0.00%    100.00% # Request fanout histogram (Count)
system.tol2bus.snoopFanout::19                      0      0.00%    100.00% # Request fanout histogram (Count)
system.tol2bus.snoopFanout::20                      0      0.00%    100.00% # Request fanout histogram (Count)
system.tol2bus.snoopFanout::21                      0      0.00%    100.00% # Request fanout histogram (Count)
system.tol2bus.snoopFanout::22                      0      0.00%    100.00% # Request fanout histogram (Count)
system.tol2bus.snoopFanout::23                      0      0.00%    100.00% # Request fanout histogram (Count)
system.tol2bus.snoopFanout::24                      0      0.00%    100.00% # Request fanout histogram (Count)
system.tol2bus.snoopFanout::25                      0      0.00%    100.00% # Request fanout histogram (Count)
system.tol2bus.snoopFanout::26                      0      0.00%    100.00% # Request fanout histogram (Count)
system.tol2bus.snoopFanout::27                      0      0.00%    100.00% # Request fanout histogram (Count)
system.tol2bus.snoopFanout::28                      0      0.00%    100.00% # Request fanout histogram (Count)
system.tol2bus.snoopFanout::29                      0      0.00%    100.00% # Request fanout histogram (Count)
system.tol2bus.snoopFanout::30                      0      0.00%    100.00% # Request fanout histogram (Count)
system.tol2bus.snoopFanout::31                      0      0.00%    100.00% # Request fanout histogram (Count)
system.tol2bus.snoopFanout::32                      0      0.00%    100.00% # Request fanout histogram (Count)
system.tol2bus.snoopFanout::33                      0      0.00%    100.00% # Request fanout histogram (Count)
system.tol2bus.snoopFanout::34                      0      0.00%    100.00% # Request fanout histogram (Count)
system.tol2bus.snoopFanout::35                      0      0.00%    100.00% # Request fanout histogram (Count)
system.tol2bus.snoopFanout::36                      0      0.00%    100.00% # Request fanout histogram (Count)
system.tol2bus.snoopFanout::37                      0      0.00%    100.00% # Request fanout histogram (Count)
system.tol2bus.snoopFanout::38                      0      0.00%    100.00% # Request fanout histogram (Count)
system.tol2bus.snoopFanout::39                      0      0.00%    100.00% # Request fanout histogram (Count)
system.tol2bus.snoopFanout::40                      0      0.00%    100.00% # Request fanout histogram (Count)
system.tol2bus.snoopFanout::41                      0      0.00%    100.00% # Request fanout histogram (Count)
system.tol2bus.snoopFanout::42                      0      0.00%    100.00% # Request fanout histogram (Count)
system.tol2bus.snoopFanout::43                      0      0.00%    100.00% # Request fanout histogram (Count)
system.tol2bus.snoopFanout::44                      0      0.00%    100.00% # Request fanout histogram (Count)
system.tol2bus.snoopFanout::45                      0      0.00%    100.00% # Request fanout histogram (Count)
system.tol2bus.snoopFanout::46                      0      0.00%    100.00% # Request fanout histogram (Count)
system.tol2bus.snoopFanout::47                      0      0.00%    100.00% # Request fanout histogram (Count)
system.tol2bus.snoopFanout::48                      0      0.00%    100.00% # Request fanout histogram (Count)
system.tol2bus.snoopFanout::49                      0      0.00%    100.00% # Request fanout histogram (Count)
system.tol2bus.snoopFanout::50                      0      0.00%    100.00% # Request fanout histogram (Count)
system.tol2bus.snoopFanout::51                      0      0.00%    100.00% # Request fanout histogram (Count)
system.tol2bus.snoopFanout::52                      0      0.00%    100.00% # Request fanout histogram (Count)
system.tol2bus.snoopFanout::53                      0      0.00%    100.00% # Request fanout histogram (Count)
system.tol2bus.snoopFanout::54                      0      0.00%    100.00% # Request fanout histogram (Count)
system.tol2bus.snoopFanout::55                      0      0.00%    100.00% # Request fanout histogram (Count)
system.tol2bus.snoopFanout::56                      0      0.00%    100.00% # Request fanout histogram (Count)
system.tol2bus.snoopFanout::57                      0      0.00%    100.00% # Request fanout histogram (Count)
system.tol2bus.snoopFanout::58                      0      0.00%    100.00% # Request fanout histogram (Count)
system.tol2bus.snoopFanout::59                      0      0.00%    100.00% # Request fanout histogram (Count)
system.tol2bus.snoopFanout::60                      0      0.00%    100.00% # Request fanout histogram (Count)
system.tol2bus.snoopFanout::61                      0      0.00%    100.00% # Request fanout histogram (Count)
system.tol2bus.snoopFanout::62                      0      0.00%    100.00% # Request fanout histogram (Count)
system.tol2bus.snoopFanout::63                      0      0.00%    100.00% # Request fanout histogram (Count)
system.tol2bus.snoopFanout::64                      0      0.00%    100.00% # Request fanout histogram (Count)
system.tol2bus.snoopFanout::overflows               0      0.00%    100.00% # Request fanout histogram (Count)
system.tol2bus.snoopFanout::min_value               0                       # Request fanout histogram (Count)
system.tol2bus.snoopFanout::max_value               2                       # Request fanout histogram (Count)
system.tol2bus.snoopFanout::total           174045975                       # Request fanout histogram (Count)
system.tol2bus.power_state.pwrStateResidencyTicks::UNDEFINED 279971790000                       # Cumulative time (in ticks) in various power states (Tick)
system.tol2bus.reqLayer0.occupancy       243078880709                       # Layer occupancy (ticks) (Tick)
system.tol2bus.reqLayer0.utilization              0.9                       # Layer utilization (Ratio)
system.tol2bus.respLayer0.occupancy        1298070859                       # Layer occupancy (ticks) (Tick)
system.tol2bus.respLayer0.utilization             0.0                       # Layer utilization (Ratio)
system.tol2bus.respLayer1.occupancy       15284237347                       # Layer occupancy (ticks) (Tick)
system.tol2bus.respLayer1.utilization             0.1                       # Layer utilization (Ratio)
system.tol2bus.respLayer12.occupancy         12817980                       # Layer occupancy (ticks) (Tick)
system.tol2bus.respLayer12.utilization            0.0                       # Layer utilization (Ratio)
system.tol2bus.respLayer13.occupancy      15249193309                       # Layer occupancy (ticks) (Tick)
system.tol2bus.respLayer13.utilization            0.1                       # Layer utilization (Ratio)
system.tol2bus.respLayer16.occupancy         11071796                       # Layer occupancy (ticks) (Tick)
system.tol2bus.respLayer16.utilization            0.0                       # Layer utilization (Ratio)
system.tol2bus.respLayer17.occupancy      15228044976                       # Layer occupancy (ticks) (Tick)
system.tol2bus.respLayer17.utilization            0.1                       # Layer utilization (Ratio)
system.tol2bus.respLayer20.occupancy        974516727                       # Layer occupancy (ticks) (Tick)
system.tol2bus.respLayer20.utilization            0.0                       # Layer utilization (Ratio)
system.tol2bus.respLayer21.occupancy      15234465931                       # Layer occupancy (ticks) (Tick)
system.tol2bus.respLayer21.utilization            0.1                       # Layer utilization (Ratio)
system.tol2bus.respLayer24.occupancy        492853086                       # Layer occupancy (ticks) (Tick)
system.tol2bus.respLayer24.utilization            0.0                       # Layer utilization (Ratio)
system.tol2bus.respLayer25.occupancy      15236254394                       # Layer occupancy (ticks) (Tick)
system.tol2bus.respLayer25.utilization            0.1                       # Layer utilization (Ratio)
system.tol2bus.respLayer28.occupancy       1297796930                       # Layer occupancy (ticks) (Tick)
system.tol2bus.respLayer28.utilization            0.0                       # Layer utilization (Ratio)
system.tol2bus.respLayer29.occupancy      15283902457                       # Layer occupancy (ticks) (Tick)
system.tol2bus.respLayer29.utilization            0.1                       # Layer utilization (Ratio)
system.tol2bus.respLayer32.occupancy        493031897                       # Layer occupancy (ticks) (Tick)
system.tol2bus.respLayer32.utilization            0.0                       # Layer utilization (Ratio)
system.tol2bus.respLayer33.occupancy      15233635974                       # Layer occupancy (ticks) (Tick)
system.tol2bus.respLayer33.utilization            0.1                       # Layer utilization (Ratio)
system.tol2bus.respLayer36.occupancy       1300123035                       # Layer occupancy (ticks) (Tick)
system.tol2bus.respLayer36.utilization            0.0                       # Layer utilization (Ratio)
system.tol2bus.respLayer37.occupancy      15288768290                       # Layer occupancy (ticks) (Tick)
system.tol2bus.respLayer37.utilization            0.1                       # Layer utilization (Ratio)
system.tol2bus.respLayer4.occupancy        1298303904                       # Layer occupancy (ticks) (Tick)
system.tol2bus.respLayer4.utilization             0.0                       # Layer utilization (Ratio)
system.tol2bus.respLayer40.occupancy        974668299                       # Layer occupancy (ticks) (Tick)
system.tol2bus.respLayer40.utilization            0.0                       # Layer utilization (Ratio)
system.tol2bus.respLayer41.occupancy      15230977357                       # Layer occupancy (ticks) (Tick)
system.tol2bus.respLayer41.utilization            0.1                       # Layer utilization (Ratio)
system.tol2bus.respLayer44.occupancy       1778323526                       # Layer occupancy (ticks) (Tick)
system.tol2bus.respLayer44.utilization            0.0                       # Layer utilization (Ratio)
system.tol2bus.respLayer45.occupancy      15293619066                       # Layer occupancy (ticks) (Tick)
system.tol2bus.respLayer45.utilization            0.1                       # Layer utilization (Ratio)
system.tol2bus.respLayer48.occupancy        496934737                       # Layer occupancy (ticks) (Tick)
system.tol2bus.respLayer48.utilization            0.0                       # Layer utilization (Ratio)
system.tol2bus.respLayer49.occupancy      15231872329                       # Layer occupancy (ticks) (Tick)
system.tol2bus.respLayer49.utilization            0.1                       # Layer utilization (Ratio)
system.tol2bus.respLayer5.occupancy       15288569260                       # Layer occupancy (ticks) (Tick)
system.tol2bus.respLayer5.utilization             0.1                       # Layer utilization (Ratio)
system.tol2bus.respLayer52.occupancy         10465234                       # Layer occupancy (ticks) (Tick)
system.tol2bus.respLayer52.utilization            0.0                       # Layer utilization (Ratio)
system.tol2bus.respLayer53.occupancy      15228921000                       # Layer occupancy (ticks) (Tick)
system.tol2bus.respLayer53.utilization            0.1                       # Layer utilization (Ratio)
system.tol2bus.respLayer56.occupancy       1780386723                       # Layer occupancy (ticks) (Tick)
system.tol2bus.respLayer56.utilization            0.0                       # Layer utilization (Ratio)
system.tol2bus.respLayer57.occupancy      15287072539                       # Layer occupancy (ticks) (Tick)
system.tol2bus.respLayer57.utilization            0.1                       # Layer utilization (Ratio)
system.tol2bus.respLayer60.occupancy         10406671                       # Layer occupancy (ticks) (Tick)
system.tol2bus.respLayer60.utilization            0.0                       # Layer utilization (Ratio)
system.tol2bus.respLayer61.occupancy      15229708704                       # Layer occupancy (ticks) (Tick)
system.tol2bus.respLayer61.utilization            0.1                       # Layer utilization (Ratio)
system.tol2bus.respLayer8.occupancy          10675249                       # Layer occupancy (ticks) (Tick)
system.tol2bus.respLayer8.utilization             0.0                       # Layer utilization (Ratio)
system.tol2bus.respLayer9.occupancy       15235543307                       # Layer occupancy (ticks) (Tick)
system.tol2bus.respLayer9.utilization             0.1                       # Layer utilization (Ratio)
system.tol2bus.snoop_filter.totRequests     334131837                       # Total number of requests made to the snoop filter. (Count)
system.tol2bus.snoop_filter.hitSingleRequests    167031860                       # Number of requests hitting in the snoop filter with a single holder of the requested data. (Count)
system.tol2bus.snoop_filter.hitMultiRequests     39941554                       # Number of requests hitting in the snoop filter with multiple (>1) holders of the requested data. (Count)
system.tol2bus.snoop_filter.totSnoops           24060                       # Total number of snoops made to the snoop filter. (Count)
system.tol2bus.snoop_filter.hitSingleSnoops        24004                       # Number of snoops hitting in the snoop filter with a single holder of the requested data. (Count)
system.tol2bus.snoop_filter.hitMultiSnoops           56                       # Number of snoops hitting in the snoop filter with multiple (>1) holders of the requested data. (Count)
system.voltage_domain.voltage                       1                       # Voltage in Volts (Volt)
system.workload.inst.arm                            0                       # number of arm instructions executed (Count)
system.workload.inst.quiesce                        0                       # number of quiesce instructions executed (Count)

---------- End Simulation Statistics   ----------
